3 

O  0.00000  0.00000 0.00000
H  0.75000  0.00000 0.00000
H -0.75000  0.00000 0.00000

3 

O -0.05292  0.05292 -0.05292
H  0.80292  0.05292 0.05292
H -0.69708  0.05292 0.05292

3 

O -0.08389  0.09494 -0.08239
H  0.84506  0.08446 0.06881
H -0.73087  0.08405 0.10088

3 

O -0.10987  0.10992 -0.10361
H  0.86811  0.12031 0.07705
H -0.77303  0.08706 0.15057

3 

O -0.13038  0.11527 -0.12070
H  0.87871  0.15401 0.04714
H -0.81471  0.09138 0.20152

3 

O -0.14336  0.10825 -0.13202
H  0.88289  0.18334 0.02181
H -0.85930  0.08209 0.25308

3 

O -0.15545  0.10242 -0.14268
H  0.87387  0.21033 -0.00052
H -0.90302  0.07168 0.30182

3 

O -0.16523  0.12218 -0.15504
H  0.86098  0.23392 -0.02004
H -0.94423  0.06469 0.34555

3 

O -0.17786  0.13711 -0.16540
H  0.84834  0.25444 -0.03726
H -0.97873  0.05308 0.38212

3 

O -0.19014  0.16416 -0.17731
H  0.83650  0.27242 -0.05257
H -1.00678  0.05276 0.42362

3 

O -0.19991  0.18896 -0.18598
H  0.82392  0.28913 -0.06571
H -1.03025  0.04755 0.45845

3 

O -0.20730  0.21021 -0.19284
H  0.80959  0.30349 -0.07688
H -1.05058  0.04103 0.48896

3 

O -0.21340  0.22971 -0.19994
H  0.79298  0.31594 -0.08564
H -1.06808  0.03122 0.51243

3 

O -0.21788  0.25268 -0.20478
H  0.78934  0.32691 -0.09629
H -1.07935  0.01242 0.52584

3 

O -0.22110  0.26707 -0.20989
H  0.77935  0.33731 -0.10693
H -1.08841 -0.00898 0.52972

3 

O -0.22324  0.27958 -0.21636
H  0.76386  0.34771 -0.11945
H -1.09506 -0.01325 0.52628

3 

O -0.22437  0.28779 -0.22122
H  0.75343  0.35916 -0.12958
H -1.09995 -0.02049 0.52225

3 

O -0.22338  0.28990 -0.22234
H  0.74312  0.36893 -0.13905
H -1.10203 -0.02897 0.51571

3 

O -0.21850  0.28392 -0.22100
H  0.72812  0.37655 -0.14538
H -1.10340 -0.03135 0.50874

3 

O -0.21329  0.28470 -0.21973
H  0.70996  0.38463 -0.15094
H -1.10001 -0.01200 0.52238

3 

O -0.21146  0.28257 -0.21632
H  0.69522  0.39223 -0.15521
H -1.09567  0.00589 0.53324

3 

O -0.21151  0.27388 -0.20727
H  0.68385  0.39173 -0.16581
H -1.09224  0.01468 0.53819

3 

O -0.21339  0.28169 -0.19677
H  0.67550  0.39183 -0.17772
H -1.08671  0.02107 0.54433

3 

O -0.21531  0.28648 -0.18841
H  0.67370  0.39239 -0.18908
H -1.07952  0.02839 0.54899

3 

O -0.21769  0.28836 -0.18091
H  0.68054  0.39416 -0.20099
H -1.07124  0.03341 0.55279

3 

O -0.22035  0.28843 -0.17358
H  0.68759  0.39622 -0.21136
H -1.06185  0.03789 0.54955

3 

O -0.22046  0.28871 -0.16649
H  0.69633  0.39938 -0.22074
H -1.05174  0.04201 0.54551

3 

O -0.21746  0.29104 -0.16030
H  0.70997  0.40247 -0.22999
H -1.04485  0.04604 0.53973

3 

O -0.21386  0.29844 -0.15126
H  0.72085  0.40547 -0.23891
H -1.03769  0.05175 0.53409

3 

O -0.21258  0.29660 -0.14355
H  0.73085  0.41007 -0.24613
H -1.02851  0.05745 0.53046

3 

O -0.21198  0.29191 -0.13800
H  0.73703  0.41714 -0.25422
H -1.02160  0.06392 0.52692

3 

O -0.21174  0.28064 -0.13019
H  0.73857  0.42354 -0.26096
H -1.01353  0.07053 0.52209

3 

O -0.21131  0.27492 -0.12264
H  0.73652  0.43029 -0.26806
H -1.00558  0.07437 0.51581

3 

O -0.21055  0.27103 -0.11519
H  0.73048  0.43587 -0.27185
H -0.99656  0.07644 0.51032

3 

O -0.20846  0.27016 -0.10434
H  0.72296  0.44066 -0.27695
H -0.98994  0.07808 0.50432

3 

O -0.20835  0.26592 -0.09543
H  0.71717  0.44492 -0.28163
H -0.98252  0.07902 0.49747

3 

O -0.20874  0.26426 -0.08671
H  0.71870  0.44805 -0.28816
H -0.97702  0.08392 0.49107

3 

O -0.21153  0.25156 -0.08132
H  0.71934  0.45135 -0.29514
H -0.96982  0.09058 0.48455

3 

O -0.21706  0.24084 -0.07664
H  0.71953  0.45634 -0.30049
H -0.96383  0.09563 0.47615

3 

O -0.22536  0.22980 -0.07583
H  0.71535  0.46044 -0.30410
H -0.96476  0.10276 0.46860

3 

O -0.23285  0.21625 -0.07320
H  0.70788  0.46372 -0.30655
H -0.96720  0.10950 0.46252

3 

O -0.23916  0.20187 -0.06955
H  0.70946  0.46760 -0.31129
H -0.97894  0.10966 0.45830

3 

O -0.24213  0.18947 -0.06744
H  0.70944  0.47083 -0.31593
H -0.99020  0.10925 0.45566

3 

O -0.24329  0.17932 -0.06848
H  0.70524  0.47312 -0.31930
H -1.00189  0.10956 0.45285

3 

O -0.24434  0.16941 -0.07029
H  0.70036  0.47570 -0.32176
H -1.01349  0.10941 0.45260

3 

O -0.24409  0.15861 -0.07307
H  0.69527  0.47927 -0.32354
H -1.02468  0.10756 0.45209

3 

O -0.24668  0.14890 -0.07797
H  0.69027  0.48267 -0.32464
H -1.03644  0.10387 0.45206

3 

O -0.25207  0.14510 -0.07950
H  0.68692  0.48678 -0.32396
H -1.04922  0.10201 0.45220

3 

O -0.25634  0.14666 -0.08232
H  0.67864  0.48983 -0.32215
H -1.06063  0.09490 0.45169

3 

O -0.25902  0.15045 -0.08505
H  0.66455  0.49256 -0.31932
H -1.07121  0.08841 0.45127

3 

O -0.25796  0.15314 -0.08667
H  0.65031  0.49473 -0.31622
H -1.07925  0.08429 0.45281

3 

O -0.24883  0.15064 -0.06700
H  0.63917  0.49668 -0.31332
H -1.08941  0.08344 0.45760

3 

O -0.24171  0.15015 -0.04897
H  0.62682  0.49831 -0.30863
H -1.10023  0.08072 0.46091

3 

O -0.22793  0.13595 -0.03304
H  0.62039  0.49727 -0.30478
H -1.10596  0.07537 0.46643

3 

O -0.21468  0.12425 -0.01830
H  0.61250  0.49501 -0.30160
H -1.11273  0.07194 0.47071

3 

O -0.20581  0.11702 -0.00517
H  0.60447  0.49333 -0.29784
H -1.11663  0.07186 0.47367

3 

O -0.19744  0.11036 0.00624
H  0.59979  0.49210 -0.29610
H -1.11898  0.07147 0.47474

3 

O -0.18861  0.10437 0.01632
H  0.59125  0.49212 -0.29382
H -1.12020  0.07223 0.47681

3 

O -0.18144  0.09793 0.02560
H  0.58155  0.49228 -0.29236
H -1.12201  0.07412 0.47927

3 

O -0.17066  0.09171 0.03431
H  0.57367  0.49336 -0.29031
H -1.12540  0.07141 0.48736

3 

O -0.15995  0.09136 0.04224
H  0.56804  0.49509 -0.28914
H -1.12765  0.06903 0.49118

3 

O -0.15196  0.09107 0.04726
H  0.56383  0.49729 -0.28943
H -1.12788  0.06719 0.49404

3 

O -0.14393  0.09161 0.05217
H  0.55691  0.50266 -0.29272
H -1.12799  0.06423 0.49534

3 

O -0.13535  0.08991 0.05724
H  0.55032  0.50877 -0.29776
H -1.12771  0.06062 0.49526

3 

O -0.12894  0.08798 0.06187
H  0.54510  0.51408 -0.30406
H -1.12726  0.05574 0.49487

3 

O -0.12164  0.08509 0.06653
H  0.54448  0.51970 -0.30866
H -1.12490  0.05065 0.49422

3 

O -0.11750  0.07985 0.07071
H  0.54238  0.52503 -0.31192
H -1.12097  0.04549 0.49304

3 

O -0.11739  0.07732 0.07428
H  0.54205  0.53126 -0.31474
H -1.11606  0.03973 0.49166

3 

O -0.11840  0.07819 0.07801
H  0.54333  0.53762 -0.31837
H -1.11268  0.03149 0.48966

3 

O -0.11939  0.08333 0.08249
H  0.54627  0.54331 -0.32250
H -1.10820  0.02436 0.48768

3 

O -0.11962  0.08400 0.08545
H  0.54979  0.54810 -0.32609
H -1.10391  0.01638 0.48521

3 

O -0.11977  0.08348 0.08788
H  0.55292  0.55261 -0.32829
H -1.10102  0.00887 0.48230

3 

O -0.11889  0.08348 0.09051
H  0.55715  0.55696 -0.33133
H -1.09739  0.00011 0.47885

3 

O -0.11850  0.08914 0.09392
H  0.56515  0.56211 -0.33185
H -1.09488 -0.01024 0.47536

3 

O -0.11829  0.09105 0.09677
H  0.57031  0.56712 -0.33178
H -1.09291 -0.01966 0.47234

3 

O -0.11725  0.09253 0.09976
H  0.57751  0.57181 -0.33142
H -1.09389 -0.02754 0.47118

3 

O -0.11507  0.09562 0.10360
H  0.58272  0.57582 -0.33087
H -1.09200 -0.03196 0.47002

3 

O -0.11002  0.07661 0.08537
H  0.58081  0.58103 -0.32756
H -1.09048 -0.03642 0.46883

3 

O -0.10278  0.05899 0.06882
H  0.57851  0.57681 -0.32186
H -1.08798 -0.04149 0.46814

3 

O -0.09706  0.04288 0.05375
H  0.57499  0.57345 -0.31642
H -1.08341 -0.04546 0.46692

3 

O -0.09293  0.02846 0.03996
H  0.56570  0.57363 -0.30614
H -1.07801 -0.04891 0.46475

3 

O -0.08898  0.01857 0.03063
H  0.56089  0.57227 -0.30130
H -1.07346 -0.05071 0.46210

3 

O -0.08589  0.00962 0.02222
H  0.55758  0.57117 -0.29659
H -1.06971 -0.05247 0.46126

3 

O -0.08280  0.00154 0.01458
H  0.55233  0.57121 -0.29314
H -1.06592 -0.05536 0.45858

3 

O -0.08027 -0.00579 0.00764
H  0.54537  0.57125 -0.29158
H -1.06291 -0.05836 0.45560

3 

O -0.07881 -0.01258 0.00136
H  0.53897  0.57120 -0.29045
H -1.05913 -0.05994 0.45108

3 

O -0.07849 -0.01878 -0.00452
H  0.53278  0.57010 -0.28984
H -1.06972 -0.07510 0.43998

3 

O -0.08049 -0.02441 -0.00993
H  0.52679  0.56937 -0.28949
H -1.07643 -0.08804 0.43176

3 

O -0.08441 -0.02922 -0.01473
H  0.52116  0.56919 -0.28903
H -1.08234 -0.09981 0.42335

3 

O -0.08797 -0.03352 -0.01903
H  0.51494  0.56934 -0.28858
H -1.08967 -0.11044 0.41652

3 

O -0.09156 -0.03740 -0.02291
H  0.50836  0.57006 -0.28972
H -1.09564 -0.12022 0.40999

3 

O -0.09845 -0.04093 -0.02653
H  0.50562  0.57070 -0.28978
H -1.10023 -0.12880 0.40415

3 

O -0.10414 -0.04409 -0.02980
H  0.50105  0.57106 -0.28962
H -1.10493 -0.13643 0.39965

3 

O -0.10869 -0.04701 -0.03278
H  0.49767  0.57134 -0.28933
H -1.10945 -0.14337 0.39582

3 

O -0.11342 -0.04970 -0.03539
H  0.49262  0.57213 -0.28881
H -1.11356 -0.14970 0.39140

3 

O -0.11737 -0.05209 -0.03766
H  0.48665  0.57323 -0.28745
H -1.11684 -0.15565 0.38732

3 

O -0.12125 -0.05438 -0.03959
H  0.48511  0.57380 -0.28610
H -1.11918 -0.16133 0.38175

3 

O -0.12458 -0.05652 -0.04125
H  0.48417  0.57466 -0.28379
H -1.12078 -0.16674 0.37589

3 

O -0.12722 -0.05854 -0.04266
H  0.48384  0.57511 -0.28254
H -1.12258 -0.17108 0.37141

3 

O -0.12998 -0.06037 -0.04397
H  0.48234  0.57665 -0.28344
H -1.12414 -0.17486 0.36787

3 

O -0.13395 -0.06200 -0.04516
H  0.48444  0.57908 -0.28382
H -1.12520 -0.17934 0.36566

3 

O -0.13772 -0.06298 -0.04598
H  0.48677  0.58090 -0.28362
H -1.12697 -0.18255 0.36399

3 

O -0.14122 -0.06380 -0.04673
H  0.48926  0.58204 -0.28331
H -1.12799 -0.18545 0.36270

3 

O -0.14420 -0.06454 -0.04740
H  0.49066  0.58279 -0.28234
H -1.12819 -0.18825 0.36189

3 

O -0.14692 -0.06527 -0.04796
H  0.49331  0.58628 -0.28215
H -1.12799 -0.19078 0.36126

3 

O -0.14956 -0.06599 -0.04848
H  0.49291  0.58920 -0.27999
H -1.12765 -0.19319 0.36013

3 

O -0.14469 -0.06616 -0.04843
H  0.49245  0.59182 -0.27785
H -1.12765 -0.19543 0.35965

3 

O -0.14175 -0.06629 -0.04835
H  0.49186  0.59475 -0.27579
H -1.12751 -0.19750 0.35938

3 

O -0.13947 -0.06640 -0.04825
H  0.49177  0.59766 -0.27415
H -1.12705 -0.19961 0.35892

3 

O -0.13737 -0.06645 -0.04813
H  0.49260  0.60089 -0.27412
H -1.12671 -0.20172 0.35854

3 

O -0.13785 -0.06631 -0.04805
H  0.49295  0.60355 -0.27385
H -1.12588 -0.20370 0.35740

3 

O -0.14081 -0.06599 -0.04800
H  0.49343  0.60572 -0.27359
H -1.12543 -0.20540 0.35603

3 

O -0.14418 -0.06577 -0.04789
H  0.49370  0.60747 -0.27478
H -1.12473 -0.20687 0.35485

3 

O -0.14745 -0.06569 -0.04776
H  0.49557  0.60933 -0.27664
H -1.12392 -0.20821 0.35307

3 

O -0.14957 -0.06571 -0.04754
H  0.49764  0.61189 -0.27768
H -1.12273 -0.20962 0.35150

3 

O -0.15102 -0.06587 -0.04722
H  0.49890  0.61383 -0.27830
H -1.12137 -0.21114 0.34916

3 

O -0.15441 -0.06603 -0.04664
H  0.49740  0.61527 -0.27914
H -1.11976 -0.21242 0.34777

3 

O -0.15387 -0.06620 -0.04586
H  0.49764  0.61594 -0.28009
H -1.11840 -0.21370 0.34645

3 

O -0.15265 -0.06660 -0.04499
H  0.49730  0.61620 -0.28182
H -1.11722 -0.21506 0.34552

3 

O -0.15181 -0.06731 -0.04403
H  0.49679  0.61646 -0.28413
H -1.11628 -0.21640 0.34476

3 

O -0.15347 -0.06835 -0.04306
H  0.49345  0.61646 -0.28604
H -1.11529 -0.21767 0.34383

3 

O -0.15211 -0.07055 -0.04337
H  0.49094  0.61553 -0.28777
H -1.11458 -0.21864 0.34325

3 

O -0.15442 -0.07217 -0.04366
H  0.48757  0.61466 -0.28924
H -1.11361 -0.21963 0.34207

3 

O -0.15699 -0.07344 -0.04384
H  0.48434  0.61338 -0.29076
H -1.11253 -0.22046 0.34079

3 

O -0.15809 -0.07462 -0.04399
H  0.48221  0.61307 -0.29360
H -1.11147 -0.22127 0.33948

3 

O -0.15824 -0.07578 -0.04409
H  0.48103  0.61299 -0.29654
H -1.11005 -0.22197 0.33836

3 

O -0.15688 -0.07698 -0.04417
H  0.47893  0.61258 -0.29941
H -1.10881 -0.22260 0.33741

3 

O -0.14749 -0.07781 -0.04558
H  0.47718  0.61195 -0.30174
H -1.10769 -0.22334 0.33700

3 

O -0.13872 -0.07872 -0.04688
H  0.47585  0.61132 -0.30342
H -1.10616 -0.22434 0.33665

3 

O -0.13072 -0.07970 -0.04809
H  0.47494  0.61115 -0.30373
H -1.10406 -0.22517 0.33638

3 

O -0.12463 -0.08062 -0.04926
H  0.47413  0.61123 -0.30402
H -1.10208 -0.22605 0.33575

3 

O -0.11910 -0.08143 -0.05032
H  0.47187  0.61215 -0.30458
H -1.09986 -0.22693 0.33465

3 

O -0.11413 -0.08214 -0.05127
H  0.47177  0.61305 -0.30487
H -1.09705 -0.22774 0.33360

3 

O -0.10947 -0.08279 -0.05213
H  0.47121  0.61410 -0.30556
H -1.09418 -0.22854 0.33218

3 

O -0.10490 -0.08345 -0.05287
H  0.46791  0.61496 -0.30888
H -1.09172 -0.22918 0.33072

3 

O -0.10066 -0.08412 -0.05356
H  0.46502  0.61503 -0.31178
H -1.08870 -0.22980 0.32900

3 

O -0.09686 -0.08478 -0.05420
H  0.46227  0.61521 -0.31407
H -1.08555 -0.23067 0.32700

3 

O -0.09333 -0.08542 -0.05479
H  0.45933  0.61566 -0.31521
H -1.08272 -0.23144 0.32407

3 

O -0.08978 -0.08601 -0.05534
H  0.45638  0.61554 -0.31648
H -1.08004 -0.23229 0.32105

3 

O -0.08611 -0.08654 -0.05581
H  0.45393  0.61565 -0.31543
H -1.07736 -0.23304 0.31828

3 

O -0.08249 -0.08700 -0.05616
H  0.45144  0.61677 -0.31350
H -1.07371 -0.23172 0.31147

3 

O -0.08000 -0.08724 -0.05632
H  0.45004  0.61768 -0.31201
H -1.07088 -0.23087 0.30651

3 

O -0.07779 -0.08741 -0.05643
H  0.44910  0.61848 -0.31073
H -1.06792 -0.23009 0.30223

3 

O -0.07588 -0.08754 -0.05652
H  0.44774  0.61887 -0.31002
H -1.06493 -0.22935 0.29811

3 

O -0.07428 -0.08762 -0.05657
H  0.44663  0.62000 -0.30861
H -1.07151 -0.23651 0.30581

3 

O -0.07281 -0.08768 -0.05662
H  0.44537  0.62124 -0.30741
H -1.07740 -0.24300 0.31276

3 

O -0.07137 -0.08773 -0.05667
H  0.44472  0.62239 -0.30651
H -1.08253 -0.24889 0.31901

3 

O -0.06987 -0.08776 -0.05674
H  0.44433  0.62365 -0.30581
H -1.08716 -0.25418 0.32467

3 

O -0.06820 -0.08780 -0.05682
H  0.44360  0.62547 -0.30564
H -1.09146 -0.25895 0.32976

3 

O -0.06639 -0.08785 -0.05692
H  0.44356  0.62726 -0.30585
H -1.09525 -0.26331 0.33435

3 

O -0.06434 -0.08788 -0.05704
H  0.44364  0.62898 -0.30593
H -1.09855 -0.26731 0.33856

